WIDTH=8;
DEPTH=32;
ADDRESS_RADIX=HEX;
DATA_RADIX=HEX;
CONTENT BEGIN
    00 : C5;
    01 : 4A;
    02 : 4A;
    03 : 4F;
    04 : D8;
    05 : 0C;
    06 : 71;
    07 : BC;
    08 : F5;
    09 : F4;
    0A : D7;
    0B : E5;
    0C : 2C;
    0D : 53;
    0E : ED;
    0F : 65;
    10 : B9;
    11 : C7;
    12 : C3;
    13 : 66;
    14 : 7F;
    15 : E6;
    16 : FF;
    17 : 23;
    18 : 23;
    19 : E1;
    1A : BF;
    1B : 1D;
    1C : 9C;
    1D : DF;
    1E : D4;
    1F : E7;
END;
